 %StormName%           ! 32 CHARACTER ALPHANUMERIC RUN DESCRIPTION
 %RUNID%               ! 24 CHARACTER ALPANUMERIC RUN IDENTIFICATION
 1                     ! NFOVER - NONFATAL ERROR OVERRIDE OPTION
 0                     ! NABOUT - ABREVIATED OUTPUT OPTION PARAMETER
 -1000                 ! NSCREEN - UNIT 6 OUTPUT OPTION PARAMETER
 %IHOT%                ! IHOT - HOT START PARAMETER
 2                     ! ICS - COORDINATE SYSTEM SELECTION PARAMETER
 111122                ! IM - MODEL SELECTION PARAMETER 
 1                     ! NOLIBF - BOTTOM FRICTION TERM SELECTION PARAMETER
 2                     ! NOLIFA - FINITE AMPLITUDE TERM SELECTION PARAMETER
 0                     ! NOLICA - SPATIAL DERIVATIVE CONVECTIVE SELECTION PARAMETER
 0                     ! NOLICAT - TIME DERIVATIVE CONVECTIVE TERM SELECTION PARAMETER
 7                     ! NWP - VARIABLE BOTTOM FRICTION AND LATERAL VISCOSITY OPTION PARAMETER
 mannings_n_at_sea_floor
 surface_canopy_coefficient
 surface_directional_effective_roughness_length
 average_horizontal_eddy_viscosity_in_sea_water_wrt_depth
 primitive_weighting_in_continuity_equation
 elemental_slope_limiter
 sea_surface_height_above_geoid
 1                     ! NCOR - VARIABLE CORIOLIS IN SPACE OPTION PARAMETER
 0                     ! NTIP - TIDAL POTENTIAL OPTION PARAMETER
 %NWS%                 ! NWS - WIND STRESS AND BAROMETRIC PRESSURE OPTION PARAMETER
 1                     ! NRAMP - RAMP FUNCTION OPTION
 9.81                  ! G - ACCELERATION DUE TO GRAVITY - DETERMINES UNITS
 -3.0                  ! TAU0 - WEIGHTING FACTOR IN GWCE
 %DT%                  ! DT - TIME STEP (IN SECONDS)
 0.00                  ! STATIM - STARTING TIME (IN DAYS)
 0.00                  ! REFTIM - REFERENCE TIME (IN DAYS)
 %WTIMINC%             ! WTIMINC
 %RNDAY%               ! RNDAY - TOTAL LENGTH OF SIMULATION (IN DAYS)
 0.0                   ! DRAMP - DURATION OF RAMP FUNCTION (IN DAYS)
 0.0  1.0  0.0         ! TIME WEIGHTING FACTORS FOR THE GWCE EQUATION
 0.10 0 0 0.01         ! H0, NODEDRYMIN, NODEWETMIN, VELMIN
 -80.0 29.0            ! SLAM0,SFEA0 - CENTER OF CPP PROJECTION (NOT USED IF ICS=1, NTIP=0, NCOR=0)
 0.0020 2.0 10 1.33333 ! FFACTOR,HBREAK,FTHETA,FGAMMA
 5.0                   ! ESL - LATERAL EDDY VISCOSITY COEFFICIENT; IGNORED IF NWP =1
 0.0                   ! CORI - CORIOLIS PARAMETER - IGNORED IF NCOR = 1
 0                     ! NTIF - TOTAL NUMBER OF TIDAL POTENTIAL CONSTITUENTS BE
 0		       ! NBFR - NUMBER OF PERIODIC FORCING FREQ ON ELEVATION SPECIFIEC BOUNDARIES.
 110.0                 ! ANGINN : INNER ANGLE THRESHOLD
%FORT61%     ! NOUTE,TOUTSE,TOUTFE,NSPOOLE:ELEV STATION OUTPUT INFO (UNIT  61)
%NUMELEVSTATIONS%  
%FORT62%     ! NOUTV,TOUTSV,TOUTFV,NSPOOLV:VEL STATION OUTPUT INFO (UNIT  62)
%NUMVELSTATIONS%   ! NSTAV - NUMBER OF ELEVATION RECORDING STATIONS, FOLLOWED BY LOCATIONS ON PROCEEDING LINES
%FORT7172% ! NOUTM,TOUTSM,TOUTFM,NSPOOLM:METEO STATION OUTPUT INFO (UNITS 71/72)
%NUMMETSTATIONS%     ! TOTAL NUMBER OF MET RECORDING STATIONS
%FORT63%       ! NOUTGE,TOUTSGE,TOUTFGE,NSPOOLGE : GLOBAL ELEVATION OUTPUT INFO (UNIT  63)
%FORT64%       ! NOUTGV,TOUTSGV,TOUTFGV,NSPOOLGV : GLOBAL VELOCITY  OUTPUT INFO (UNIT  64)    
%FORT7374%     ! NOUTGW,TOUTSGW,TOUTFGW,NSPOOLGW : GLOBAL WIND OUTPUT INFO
 0                          ! NHARFR - NUMBER OF CONSTITUENTS TO BE INCLUDED IN THE HARMONIC ANALYSIS
 40.0  50.0  5  0.0         ! THAS,THAF,NHAINC,FMV - HARMONIC ANALYSIS PARAMETERS    
 0 0 0 0                    ! NHASE,NHASV,NHAGE,NHAGV - CONTROL HARMONIC ANALYSIS AND OUTPUT TO UNITS 51,52,53,54
 %NHSTAR%  %NHSINC%          ! NHSTAR,NHSINC - HOT START FILE GENERATION PARAMETERS 
 1  0  1.E-7  25 0          ! ITITER, ISLDIA, CONVCR, ITMAX & ILUMP
%NCPROJ%
%NCINST%
%NCSOUR%
%NCHIST%
%NCREF%
%NCCOM%
%NCHOST%
%NCCONV%
%NCCONT%
%NCDATE%
