 irl_inundation        ! 32 CHARACTER ALPHANUMERIC RUN DESCRIPTION
 Coastal ENG FIT       ! 24 CHARACTER ALPANUMERIC RUN IDENTIFICATION
 1                     ! NFOVER - NONFATAL ERROR OVERRIDE OPTION
 1                     ! NABOUT - ABREVIATED OUTPUT OPTION PARAMETER
 1000                  ! NSCREEN - UNIT 6 OUTPUT OPTION PARAMETER
 0                     ! IHOT - HOT START PARAMETER
 2                     ! ICS - COORDINATE SYSTEM SELECTION PARAMETER
 111122                ! IM - MODEL SELECTION PARAMETER 
 1                     ! NOLIBF - BOTTOM FRICTION TERM SELECTION PARAMETER
 2                     ! NOLIFA - FINITE AMPLITUDE TERM SELECTION PARAMETER
 0                     ! NOLICA - SPATIAL DERIVATIVE CONVECTIVE SELECTION PARAMETER
 0                     ! NOLICAT - TIME DERIVATIVE CONVECTIVE TERM SELECTION PARAMETER
 3                     ! NWP - VARIABLE BOTTOM FRICTION AND LATERAL VISCOSITY OPTION PARAMETER
 mannings_n_at_sea_floor
 primitive_weighting_in_continuity_equation
 sea_surface_height_above_geoid
 1                     ! NCOR - VARIABLE CORIOLIS IN SPACE OPTION PARAMETER
 0                     ! NTIP - TIDAL POTENTIAL OPTION PARAMETER
 312                   ! NWS - WIND STRESS AND BAROMETRIC PRESSURE OPTION PARAMETER
 1                     ! NRAMP - RAMP FUNCTION OPTION
 9.81                  ! G - ACCELERATION DUE TO GRAVITY - DETERMINES UNITS
 -3                    ! TAU0 - WEIGHTING FACTOR IN GWCE
 1                     ! DT - TIME STEP (IN SECONDS)
 0.00                  ! STATIM - STARTING TIME (IN DAYS)
 0.00                  ! REFTIM - REFERENCE TIME (IN DAYS)
 1800 1200             ! WTIMINC
 4                     ! RNDAY - TOTAL LENGTH OF SIMULATION (IN DAYS)
 0.0                   ! DRAMP - DURATION OF RAMP FUNCTION (IN DAYS)
 0.0   1.0    0.0      ! TIME WEIGHTING FACTORS FOR THE GWCE EQUATION
 0.10  0  0   0.01     ! H0, NODEDRYMIN, NODEWETMIN, VELMIN
 -80.0    28.0         ! SLAM0,SFEA0-CENTER OF CPP PRJCTN(NOT USED IF ICS=1, NTIP=0, NCOR=0)
 0.003 2.0 10 1.33333  ! FFACTOR,HBREAK,FTHETA,FGAMMA
 10.0                  ! ESL - LATERAL EDDY VISCOSITY COEFFICIENT; IGNORED IF NWP =1
 0.0                   ! CORI - CORIOLIS PARAMETER - IGNORED IF NCOR = 1
 0                     ! NTIF - TOTAL NUMBER OF TIDAL POTENTIAL CONSTITUENTS BE
 0                     ! 
 110.0               ! ANGINN : INNER ANGLE THRESHOLD
 0 0.0 365.0 99999   ! NOUTE,TOUTSE,TOUTFE,NSPOOLE:ELEV STATION OUTPUT INFO (UNIT  61)
 0     
 0 0.0 365.0 99999   ! NOUTV,TOUTSV,TOUTFV,NSPOOLV:VEL STATION OUTPUT INFO (UNIT  62)
 0      
 0 0.0 365.0 99999   ! NOUTM,TOUTSM,TOUTFM,NSPOOLM:METEO STATION OUTPUT INFO (UNITS 71/72)
 0  
 1  1    4   900     ! NOUTGE,TOUTSGE,TOUTFGE,NSPOOLGE : G. EL. OUTPUT (UNIT  63)
 1  1    4   900     ! NOUTGV,TOUTSGV,TOUTFGV,NSPOOLGV : G. V.  OUTPUT (UNIT  64)    
 1  1    4   900     ! NOUTGW,TOUTSGW,TOUTFGW,NSPOOLGW : G. W.  OUTPUT 
 0                   ! NHARFR - NUMBER OF CONSTITUENTS TO BE INCLUDED IN THE HARMONIC ANALYSIS
 40.0  50.0  5  0.0  ! THAS,THAF,NHAINC,FMV - HARMONIC ANALYSIS PARAMETERS    
 0 0 0 0             ! NHASE,NHASV,NHAGE,NHAGV 
 0  99999            ! NHSTAR,NHSINC - HOT START FILE GENERATION PARAMETERS 
 1  0  1.E-7  25     ! ITITER, ISLDIA, CONVCR, ITMAX & ILUMP
