 S1 %StormName%          ! 32 CHARACTER ALPHANUMERIC RUN DESCRIPTION
 %EnsembleID%          ! 24 CHARACTER ALPANUMERIC RUN IDENTIFICATION
 1                     ! NFOVER - NONFATAL ERROR OVERRIDE OPTION
 1                     ! NABOUT - ABREVIATED OUTPUT OPTION PARAMETER
 1000                  ! NSCREEN - UNIT 6 OUTPUT OPTION PARAMETER
 %IHOT%                ! IHOT - HOT START PARAMETER
 2                     ! ICS - COORDINATE SYSTEM SELECTION PARAMETER
 111122                ! IM - MODEL SELECTION PARAMETER 
 1                     ! NOLIBF - BOTTOM FRICTION TERM SELECTION PARAMETER
 2                     ! NOLIFA - FINITE AMPLITUDE TERM SELECTION PARAMETER
 0                     ! NOLICA - SPATIAL DERIVATIVE CONVECTIVE SELECTION PARAMETER
 0                     ! NOLICAT - TIME DERIVATIVE CONVECTIVE TERM SELECTION PARAMETER
 5                     ! NWP - VARIABLE BOTTOM FRICTION AND LATERAL VISCOSITY OPTION PARAMETER
mannings_n_at_sea_floor
primitive_weighting_in_continuity_equation
sea_surface_height_above_geoid
 1                     ! NCOR - VARIABLE CORIOLIS IN SPACE OPTION PARAMETER
 1                     ! NTIP - TIDAL POTENTIAL OPTION PARAMETER
 %NWS%                 ! NWS - WIND STRESS AND BAROMETRIC PRESSURE OPTION PARAMETER
 1                     ! NRAMP - RAMP FUNCTION OPTION
 9.81                  ! G - ACCELERATION DUE TO GRAVITY - DETERMINES UNITS
 -3.0                  ! TAU0 - WEIGHTING FACTOR IN GWCE
 %DT%                  ! DT - TIME STEP (IN SECONDS)
 0.00                  ! STATIM - STARTING TIME (IN DAYS)
 0.00                  ! REFTIM - REFERENCE TIME (IN DAYS)
 %WTIMINC%             ! WTIMINC
 %RNDAY%               ! RNDAY - TOTAL LENGTH OF SIMULATION (IN DAYS)
 10.0                  ! DRAMP - DURATION OF RAMP FUNCTION (IN DAYS)
 0.0  1.0 0.0          ! TIME WEIGHTING FACTORS FOR THE GWCE EQUATION
 0.10 0 0 0.01         ! H0, NODEDRYMIN, NODEWETMIN, VELMIN
 265.5 29.0            ! SLAM0,SFEA0 - CENTER OF CPP PROJECTION (NOT USED IF ICS=1, NTIP=0, NCOR=0)
 0.0018 2.0 10 1.33333 ! FFACTOR,HBREAK,FTHETA,FGAMMA
 10.0                  ! ESL - LATERAL EDDY VISCOSITY COEFFICIENT; IGNORED IF NWP =1
 0.0                   ! CORI - CORIOLIS PARAMETER - IGNORED IF NCOR = 1
 8                     ! NTIF - TOTAL NUMBER OF TIDAL POTENTIAL CONSTITUENTS BE
M2                        ! ALPHANUMERIC DESCRIPTION
 0.242334  1.405174E-004 0.693000  %M2NF%  %M2EQARG%
S2                                                       ! ALPHANUMERIC DESCRIPTION
 0.112841  1.454426E-004 0.693000  %S2NF%  %S2EQARG%
N2                                                       ! ALPHANUMERIC DESCRIPTION
 0.046398  1.378783E-004 0.693000  %N2NF%  %N2EQARG%
K2                                                       ! ALPHANUMERIC DESCRIPTION
 0.030704  1.458408E-004 0.693000  %K2NF%  %K2EQARG%
K1                                                       ! ALPHANUMERIC DESCRIPTION
 0.141565  7.292040E-005 0.736000  %K1NF%  %K1EQARG%
O1                                                       ! ALPHANUMERIC DESCRIPTION
 0.100514  6.759704E-005 0.695000  %O1NF%  %O1EQARG%
P1                                                       ! ALPHANUMERIC DESCRIPTION
 0.046843  7.252219E-005 0.706000  %P1NF%  %P1EQARG%
Q1                                                       ! ALPHANUMERIC DESCRIPTION
 0.019256 6.495787E-005 0.695000   %Q1NF%  %Q1EQARG%
 8  ! NBFR jgf20110607: tidal b.c.s interpolated from tpx0 7.2 
M2                                       ! ALPHANUMERIC DESCRIPTION
   1.405174E-004  %M2NF%  %M2EQARG%
S2                                       ! ALPHANUMERIC DESCRIPTION
   1.454426E-004  %S2NF%  %S2EQARG%
N2                                       ! ALPHANUMERIC DESCRIPTION
   1.378783E-004  %N2NF%  %N2EQARG%
K2                                       ! ALPHANUMERIC DESCRIPTION
   1.458408E-004  %K2NF%  %K2EQARG%
K1                                       ! ALPHANUMERIC DESCRIPTION
   7.292040E-005  %K1NF%  %K1EQARG%
O1                                       ! ALPHANUMERIC DESCRIPTION
   6.759704E-005  %O1NF%  %O1EQARG%
P1                                       ! ALPHANUMERIC DESCRIPTION
   7.252219E-005  %P1NF%  %P1EQARG%
Q1                                       ! ALPHANUMERIC DESCRIPTION
   6.495787E-005  %Q1NF%  %Q1EQARG%
M2                                       ! EALPHA - FORCING CONSTITUENT NAME AGAIN
0.464171 215.036                         ! EMO, EFA
0.464171 215.036                         ! EMO, EFA
0.464171 215.036                         ! EMO, EFA
0.464171 215.036                         ! EMO, EFA
0.464171 215.036                         ! EMO, EFA
0.464171 215.036                         ! EMO, EFA
0.464171 215.036                         ! EMO, EFA
0.464171 215.036                         ! EMO, EFA
0.464171 215.036                         ! EMO, EFA
0.464171 215.036                         ! EMO, EFA
0.464171 215.036                         ! EMO, EFA
0.464171 215.036                         ! EMO, EFA
0.464171 215.036                         ! EMO, EFA
0.464171 215.036                         ! EMO, EFA
0.464171 215.036                         ! EMO, EFA
0.464171 215.036                         ! EMO, EFA
0.464171 215.036                         ! EMO, EFA
0.461756 215.001                         ! EMO, EFA
0.457624 214.942                         ! EMO, EFA
0.453492 214.881                         ! EMO, EFA
0.449360 214.819                         ! EMO, EFA
0.445230 214.756                         ! EMO, EFA
0.441099 214.691                         ! EMO, EFA
0.436970 214.626                         ! EMO, EFA
0.432840 214.559                         ! EMO, EFA
0.429278 214.500                         ! EMO, EFA
0.425716 214.441                         ! EMO, EFA
0.422154 214.380                         ! EMO, EFA
0.418593 214.318                         ! EMO, EFA
0.414548 214.247                         ! EMO, EFA
0.410503 214.174                         ! EMO, EFA
0.406459 214.100                         ! EMO, EFA
0.402415 214.024                         ! EMO, EFA
0.398724 213.957                         ! EMO, EFA
0.394987 213.890                         ! EMO, EFA
0.391251 213.822                         ! EMO, EFA
0.387515 213.753                         ! EMO, EFA
0.383749 213.682                         ! EMO, EFA
0.379983 213.610                         ! EMO, EFA
0.374993 213.512                         ! EMO, EFA
0.370004 213.411                         ! EMO, EFA
0.365288 213.313                         ! EMO, EFA
0.360670 213.214                         ! EMO, EFA
0.356680 213.127                         ! EMO, EFA
0.351908 213.020                         ! EMO, EFA
0.347415 212.917                         ! EMO, EFA
0.340083 212.743                         ! EMO, EFA
0.334664 212.612                         ! EMO, EFA
0.331390 212.539                         ! EMO, EFA
0.328219 212.468                         ! EMO, EFA
0.325048 212.395                         ! EMO, EFA
0.321726 212.317                         ! EMO, EFA
0.318406 212.237                         ! EMO, EFA
0.314532 212.142                         ! EMO, EFA
0.310660 212.044                         ! EMO, EFA
0.305970 211.923                         ! EMO, EFA
0.301306 211.811                         ! EMO, EFA
0.296497 211.747                         ! EMO, EFA
0.291689 211.681                         ! EMO, EFA
0.284256 211.575                         ! EMO, EFA
0.276825 211.463                         ! EMO, EFA
0.272713 211.398                         ! EMO, EFA
0.268761 211.352                         ! EMO, EFA
0.263318 211.367                         ! EMO, EFA
0.257876 211.383                         ! EMO, EFA
0.253840 211.395                         ! EMO, EFA
0.249805 211.407                         ! EMO, EFA
0.244346 211.424                         ! EMO, EFA
0.239312 211.486                         ! EMO, EFA
0.234128 211.595                         ! EMO, EFA
0.228944 211.709                         ! EMO, EFA
0.224176 211.819                         ! EMO, EFA
0.219409 211.933                         ! EMO, EFA
0.215911 212.062                         ! EMO, EFA
0.212702 212.207                         ! EMO, EFA
0.209494 212.358                         ! EMO, EFA
0.206288 212.512                         ! EMO, EFA
0.203084 212.672                         ! EMO, EFA
0.199881 212.837                         ! EMO, EFA
0.196819 212.996                         ! EMO, EFA
0.193793 213.158                         ! EMO, EFA
0.190425 213.344                         ! EMO, EFA
0.187058 213.536                         ! EMO, EFA
0.183519 213.747                         ! EMO, EFA
0.180021 213.972                         ! EMO, EFA
0.176521 214.220                         ! EMO, EFA
0.173023 214.477                         ! EMO, EFA
0.168761 214.806                         ! EMO, EFA
0.164504 215.152                         ! EMO, EFA
0.160252 215.544                         ! EMO, EFA
0.156002 215.959                         ! EMO, EFA
0.153032 216.263                         ! EMO, EFA
0.150067 216.579                         ! EMO, EFA
0.147227 216.894                         ! EMO, EFA
0.144349 217.296                         ! EMO, EFA
0.141413 217.742                         ! EMO, EFA
0.138741 218.165                         ! EMO, EFA
0.136288 218.569                         ! EMO, EFA
0.133757 219.003                         ! EMO, EFA
0.130745 219.535                         ! EMO, EFA
0.127382 220.157                         ! EMO, EFA
0.124231 220.773                         ! EMO, EFA
0.121536 221.328                         ! EMO, EFA
0.118963 221.883                         ! EMO, EFA
0.115660 222.625                         ! EMO, EFA
0.112945 223.267                         ! EMO, EFA
0.110196 223.953                         ! EMO, EFA
0.107512 224.661                         ! EMO, EFA
0.104700 225.448                         ! EMO, EFA
0.101697 226.325                         ! EMO, EFA
0.096691 227.911                         ! EMO, EFA
0.091538 229.757                         ! EMO, EFA
0.086616 231.778                         ! EMO, EFA
0.081568 234.193                         ! EMO, EFA
0.076685 236.922                         ! EMO, EFA
0.072040 240.013                         ! EMO, EFA
0.067910 243.498                         ! EMO, EFA
0.064063 247.417                         ! EMO, EFA
0.060554 251.813                         ! EMO, EFA
0.057523 256.751                         ! EMO, EFA
0.054967 262.193                         ! EMO, EFA
0.052791 268.689                         ! EMO, EFA
0.051740 274.239                         ! EMO, EFA
0.051185 280.545                         ! EMO, EFA
0.051179 285.264                         ! EMO, EFA
0.051538 289.897                         ! EMO, EFA
0.052289 294.202                         ! EMO, EFA
0.053325 298.362                         ! EMO, EFA
0.055561 304.692                         ! EMO, EFA
0.058007 309.616                         ! EMO, EFA
0.060654 313.792                         ! EMO, EFA
0.064167 318.263                         ! EMO, EFA
0.068287 322.440                         ! EMO, EFA
0.072036 325.578                         ! EMO, EFA
0.076847 328.965                         ! EMO, EFA
0.081713 331.827                         ! EMO, EFA
0.086915 334.433                         ! EMO, EFA
0.091860 336.539                         ! EMO, EFA
0.097389 338.540                         ! EMO, EFA
0.103625 340.495                         ! EMO, EFA
0.109003 341.925                         ! EMO, EFA
0.113701 343.052                         ! EMO, EFA
0.118367 344.045                         ! EMO, EFA
0.122993 344.921                         ! EMO, EFA
0.127646 345.734                         ! EMO, EFA
0.132195 346.467                         ! EMO, EFA
0.136720 347.145                         ! EMO, EFA
0.141263 347.779                         ! EMO, EFA
0.145637 348.340                         ! EMO, EFA
0.149609 348.819                         ! EMO, EFA
0.153585 349.270                         ! EMO, EFA
0.157416 349.640                         ! EMO, EFA
0.161253 349.992                         ! EMO, EFA
0.165096 350.328                         ! EMO, EFA
0.168769 350.600                         ! EMO, EFA
0.172444 350.860                         ! EMO, EFA
0.176123 351.109                         ! EMO, EFA
0.180518 351.426                         ! EMO, EFA
0.184915 351.730                         ! EMO, EFA
0.189278 352.003                         ! EMO, EFA
0.193590 352.241                         ! EMO, EFA
0.197906 352.468                         ! EMO, EFA
0.202144 352.705                         ! EMO, EFA
0.206376 352.935                         ! EMO, EFA
0.210550 353.136                         ! EMO, EFA
0.214741 353.301                         ! EMO, EFA
0.218935 353.460                         ! EMO, EFA
0.223052 353.620                         ! EMO, EFA
0.227164 353.775                         ! EMO, EFA
0.231202 353.913                         ! EMO, EFA
0.235153 354.033                         ! EMO, EFA
0.239105 354.149                         ! EMO, EFA
0.242927 354.232                         ! EMO, EFA
0.246643 354.311                         ! EMO, EFA
0.250283 354.388                         ! EMO, EFA
0.253847 354.465                         ! EMO, EFA
0.257412 354.539                         ! EMO, EFA
0.260934 354.617                         ! EMO, EFA
0.264455 354.692                         ! EMO, EFA
0.267941 354.751                         ! EMO, EFA
0.271383 354.791                         ! EMO, EFA
0.274727 354.829                         ! EMO, EFA
0.277970 354.865                         ! EMO, EFA
0.281201 354.900                         ! EMO, EFA
0.284420 354.936                         ! EMO, EFA
0.287610 354.975                         ! EMO, EFA
0.290800 355.013                         ! EMO, EFA
0.293936 355.024                         ! EMO, EFA
0.297049 355.024                         ! EMO, EFA
0.300415 355.031                         ! EMO, EFA
0.303681 355.070                         ! EMO, EFA
0.306946 355.108                         ! EMO, EFA
0.310116 355.116                         ! EMO, EFA
0.313259 355.116                         ! EMO, EFA
0.316383 355.099                         ! EMO, EFA
0.319478 355.057                         ! EMO, EFA
0.322572 355.016                         ! EMO, EFA
0.325306 355.016                         ! EMO, EFA
0.328041 355.016                         ! EMO, EFA
0.330742 355.015                         ! EMO, EFA
0.333397 355.012                         ! EMO, EFA
0.336051 355.009                         ! EMO, EFA
0.338674 354.976                         ! EMO, EFA
0.341290 354.938                         ! EMO, EFA
0.343882 354.900                         ! EMO, EFA
0.346092 354.866                         ! EMO, EFA
0.348301 354.832                         ! EMO, EFA
0.350489 354.788                         ! EMO, EFA
0.352628 354.719                         ! EMO, EFA
0.354767 354.652                         ! EMO, EFA
0.356870 354.596                         ! EMO, EFA
0.358907 354.562                         ! EMO, EFA
0.360944 354.528                         ! EMO, EFA
0.363067 354.476                         ! EMO, EFA
0.365128 354.403                         ! EMO, EFA
0.367189 354.331                         ! EMO, EFA
0.369151 354.234                         ! EMO, EFA
0.371067 354.125                         ! EMO, EFA
0.372984 354.017                         ! EMO, EFA
0.374800 353.941                         ! EMO, EFA
0.376608 353.869                         ! EMO, EFA
0.378631 353.778                         ! EMO, EFA
0.380623 353.655                         ! EMO, EFA
0.382617 353.533                         ! EMO, EFA
0.384576 353.410                         ! EMO, EFA
0.386528 353.288                         ! EMO, EFA
0.388455 353.154                         ! EMO, EFA
0.390331 352.993                         ! EMO, EFA
0.392210 352.835                         ! EMO, EFA
0.393843 352.719                         ! EMO, EFA
0.395473 352.607                         ! EMO, EFA
0.397103 352.489                         ! EMO, EFA
0.398944 352.286                         ! EMO, EFA
0.400679 352.097                         ! EMO, EFA
0.402453 351.922                         ! EMO, EFA
0.404650 351.723                         ! EMO, EFA
0.406757 351.512                         ! EMO, EFA
0.408352 351.333                         ! EMO, EFA
0.409951 351.156                         ! EMO, EFA
0.411632 350.947                         ! EMO, EFA
0.413337 350.733                         ! EMO, EFA
0.415048 350.521                         ! EMO, EFA
0.416786 350.336                         ! EMO, EFA
0.418527 350.152                         ! EMO, EFA
0.420378 349.933                         ! EMO, EFA
0.422226 349.666                         ! EMO, EFA
0.424084 349.401                         ! EMO, EFA
0.425907 349.103                         ! EMO, EFA
0.427727 348.795                         ! EMO, EFA
0.429544 348.489                         ! EMO, EFA
0.431279 348.180                         ! EMO, EFA
0.433027 347.873                         ! EMO, EFA
0.434774 347.554                         ! EMO, EFA
0.436484 347.233                         ! EMO, EFA
0.438195 346.913                         ! EMO, EFA
0.439496 346.515                         ! EMO, EFA
0.440205 346.302                         ! EMO, EFA
0.441064 346.047                         ! EMO, EFA
0.442116 345.784                         ! EMO, EFA
0.443354 345.512                         ! EMO, EFA
0.444318 345.302                         ! EMO, EFA
0.445242 345.104                         ! EMO, EFA
0.447543 344.986                         ! EMO, EFA
0.460998 345.714                         ! EMO, EFA
0.472341 346.293                         ! EMO, EFA
0.483023 346.812                         ! EMO, EFA
0.494116 347.325                         ! EMO, EFA
0.501707 347.326                         ! EMO, EFA
0.505352 347.156                         ! EMO, EFA
0.509590 346.961                         ! EMO, EFA
0.513700 346.776                         ! EMO, EFA
0.518081 346.582                         ! EMO, EFA
0.521110 346.335                         ! EMO, EFA
0.522720 346.030                         ! EMO, EFA
0.523687 345.848                         ! EMO, EFA
0.524659 345.668                         ! EMO, EFA
0.525636 345.488                         ! EMO, EFA
0.526619 345.308                         ! EMO, EFA
0.526090 345.117                         ! EMO, EFA
0.524991 344.920                         ! EMO, EFA
0.523898 344.723                         ! EMO, EFA
0.522811 344.525                         ! EMO, EFA
0.521789 344.336                         ! EMO, EFA
0.520799 344.152                         ! EMO, EFA
0.519866 343.977                         ! EMO, EFA
0.519550 343.918                         ! EMO, EFA
0.519550 343.918                         ! EMO, EFA
0.519550 343.918                         ! EMO, EFA
0.519550 343.918                         ! EMO, EFA
0.519550 343.918                         ! EMO, EFA
0.519550 343.918                         ! EMO, EFA
0.519550 343.918                         ! EMO, EFA
S2                                       ! EALPHA - FORCING CONSTITUENT NAME AGAIN
0.151219 240.863                         ! EMO, EFA
0.151219 240.863                         ! EMO, EFA
0.151219 240.863                         ! EMO, EFA
0.151219 240.863                         ! EMO, EFA
0.151219 240.863                         ! EMO, EFA
0.151219 240.863                         ! EMO, EFA
0.151219 240.863                         ! EMO, EFA
0.151219 240.863                         ! EMO, EFA
0.151219 240.863                         ! EMO, EFA
0.151219 240.863                         ! EMO, EFA
0.151219 240.863                         ! EMO, EFA
0.151219 240.863                         ! EMO, EFA
0.151219 240.863                         ! EMO, EFA
0.151219 240.863                         ! EMO, EFA
0.151219 240.863                         ! EMO, EFA
0.151219 240.863                         ! EMO, EFA
0.151219 240.863                         ! EMO, EFA
0.150379 240.819                         ! EMO, EFA
0.148942 240.741                         ! EMO, EFA
0.147505 240.661                         ! EMO, EFA
0.146069 240.581                         ! EMO, EFA
0.144632 240.498                         ! EMO, EFA
0.143196 240.414                         ! EMO, EFA
0.141761 240.328                         ! EMO, EFA
0.140325 240.241                         ! EMO, EFA
0.139087 240.164                         ! EMO, EFA
0.137849 240.085                         ! EMO, EFA
0.136611 240.005                         ! EMO, EFA
0.135374 239.924                         ! EMO, EFA
0.133968 239.830                         ! EMO, EFA
0.132563 239.734                         ! EMO, EFA
0.131158 239.636                         ! EMO, EFA
0.129753 239.535                         ! EMO, EFA
0.128484 239.453                         ! EMO, EFA
0.127209 239.378                         ! EMO, EFA
0.125934 239.301                         ! EMO, EFA
0.124660 239.223                         ! EMO, EFA
0.123376 239.143                         ! EMO, EFA
0.122091 239.061                         ! EMO, EFA
0.120389 238.949                         ! EMO, EFA
0.118688 238.834                         ! EMO, EFA
0.117080 238.723                         ! EMO, EFA
0.115505 238.610                         ! EMO, EFA
0.114144 238.511                         ! EMO, EFA
0.112517 238.389                         ! EMO, EFA
0.110986 238.270                         ! EMO, EFA
0.108486 238.070                         ! EMO, EFA
0.106648 237.922                         ! EMO, EFA
0.105563 237.848                         ! EMO, EFA
0.104512 237.775                         ! EMO, EFA
0.103460 237.700                         ! EMO, EFA
0.102359 237.620                         ! EMO, EFA
0.101259 237.539                         ! EMO, EFA
0.099975 237.441                         ! EMO, EFA
0.098691 237.341                         ! EMO, EFA
0.097136 237.217                         ! EMO, EFA
0.095589 237.104                         ! EMO, EFA
0.093990 237.053                         ! EMO, EFA
0.092390 237.001                         ! EMO, EFA
0.089918 236.916                         ! EMO, EFA
0.087446 236.826                         ! EMO, EFA
0.086078 236.774                         ! EMO, EFA
0.084763 236.741                         ! EMO, EFA
0.082952 236.775                         ! EMO, EFA
0.081142 236.811                         ! EMO, EFA
0.079799 236.839                         ! EMO, EFA
0.078456 236.868                         ! EMO, EFA
0.076640 236.909                         ! EMO, EFA
0.074985 237.002                         ! EMO, EFA
0.073299 237.154                         ! EMO, EFA
0.071613 237.314                         ! EMO, EFA
0.070063 237.468                         ! EMO, EFA
0.068513 237.629                         ! EMO, EFA
0.067408 237.782                         ! EMO, EFA
0.066414 237.945                         ! EMO, EFA
0.065420 238.113                         ! EMO, EFA
0.064426 238.286                         ! EMO, EFA
0.063434 238.465                         ! EMO, EFA
0.062441 238.650                         ! EMO, EFA
0.061526 238.826                         ! EMO, EFA
0.060630 239.004                         ! EMO, EFA
0.059632 239.209                         ! EMO, EFA
0.058636 239.421                         ! EMO, EFA
0.057588 239.651                         ! EMO, EFA
0.056589 239.861                         ! EMO, EFA
0.055638 240.040                         ! EMO, EFA
0.054688 240.225                         ! EMO, EFA
0.053529 240.459                         ! EMO, EFA
0.052371 240.705                         ! EMO, EFA
0.051393 240.873                         ! EMO, EFA
0.050422 241.043                         ! EMO, EFA
0.049744 241.165                         ! EMO, EFA
0.049065 241.292                         ! EMO, EFA
0.048414 241.416                         ! EMO, EFA
0.047782 241.615                         ! EMO, EFA
0.047142 241.842                         ! EMO, EFA
0.046559 242.054                         ! EMO, EFA
0.046023 242.254                         ! EMO, EFA
0.045469 242.466                         ! EMO, EFA
0.044775 242.695                         ! EMO, EFA
0.043980 242.945                         ! EMO, EFA
0.043233 243.188                         ! EMO, EFA
0.042591 243.403                         ! EMO, EFA
0.041977 243.616                         ! EMO, EFA
0.041160 243.938                         ! EMO, EFA
0.040480 244.223                         ! EMO, EFA
0.039788 244.524                         ! EMO, EFA
0.039110 244.829                         ! EMO, EFA
0.038396 245.162                         ! EMO, EFA
0.037641 245.508                         ! EMO, EFA
0.036379 246.100                         ! EMO, EFA
0.035063 246.765                         ! EMO, EFA
0.033779 247.462                         ! EMO, EFA
0.032420 248.250                         ! EMO, EFA
0.031067 249.108                         ! EMO, EFA
0.029726 250.056                         ! EMO, EFA
0.028420 251.187                         ! EMO, EFA
0.027126 252.426                         ! EMO, EFA
0.025847 253.788                         ! EMO, EFA
0.024584 255.365                         ! EMO, EFA
0.023343 257.114                         ! EMO, EFA
0.022011 259.254                         ! EMO, EFA
0.021010 261.236                         ! EMO, EFA
0.019946 263.655                         ! EMO, EFA
0.019182 265.618                         ! EMO, EFA
0.018454 267.734                         ! EMO, EFA
0.017797 269.986                         ! EMO, EFA
0.017171 272.407                         ! EMO, EFA
0.016230 276.697                         ! EMO, EFA
0.015519 280.751                         ! EMO, EFA
0.014939 284.848                         ! EMO, EFA
0.014359 290.094                         ! EMO, EFA
0.013887 296.057                         ! EMO, EFA
0.013612 301.373                         ! EMO, EFA
0.013442 308.048                         ! EMO, EFA
0.013443 314.497                         ! EMO, EFA
0.013621 321.053                         ! EMO, EFA
0.013945 326.859                         ! EMO, EFA
0.014463 332.792                         ! EMO, EFA
0.015208 338.792                         ! EMO, EFA
0.016002 343.255                         ! EMO, EFA
0.016759 346.753                         ! EMO, EFA
0.017554 349.906                         ! EMO, EFA
0.018379 352.752                         ! EMO, EFA
0.019245 355.348                         ! EMO, EFA
0.020127 357.628                         ! EMO, EFA
0.021030 359.685                         ! EMO, EFA
0.021958 1.571                           ! EMO, EFA
0.022852 3.185                           ! EMO, EFA
0.023677 4.539                           ! EMO, EFA
0.024512 5.798                           ! EMO, EFA
0.025327 6.898                           ! EMO, EFA
0.026151 7.930                           ! EMO, EFA
0.026982 8.899                           ! EMO, EFA
0.027797 9.758                           ! EMO, EFA
0.028618 10.569                          ! EMO, EFA
0.029443 11.333                          ! EMO, EFA
0.030430 12.159                          ! EMO, EFA
0.031421 12.931                          ! EMO, EFA
0.032411 13.672                          ! EMO, EFA
0.033396 14.388                          ! EMO, EFA
0.034387 15.064                          ! EMO, EFA
0.035371 15.682                          ! EMO, EFA
0.036359 16.264                          ! EMO, EFA
0.037333 16.798                          ! EMO, EFA
0.038310 17.289                          ! EMO, EFA
0.039290 17.756                          ! EMO, EFA
0.040229 18.213                          ! EMO, EFA
0.041166 18.650                          ! EMO, EFA
0.042104 19.034                          ! EMO, EFA
0.043040 19.360                          ! EMO, EFA
0.043978 19.672                          ! EMO, EFA
0.044870 20.001                          ! EMO, EFA
0.045738 20.308                          ! EMO, EFA
0.046588 20.578                          ! EMO, EFA
0.047420 20.815                          ! EMO, EFA
0.048252 21.043                          ! EMO, EFA
0.049083 21.247                          ! EMO, EFA
0.049915 21.443                          ! EMO, EFA
0.050729 21.657                          ! EMO, EFA
0.051520 21.890                          ! EMO, EFA
0.052290 22.110                          ! EMO, EFA
0.053060 22.274                          ! EMO, EFA
0.053829 22.427                          ! EMO, EFA
0.054598 22.579                          ! EMO, EFA
0.055364 22.735                          ! EMO, EFA
0.056130 22.887                          ! EMO, EFA
0.056872 23.040                          ! EMO, EFA
0.057602 23.191                          ! EMO, EFA
0.058391 23.346                          ! EMO, EFA
0.059144 23.474                          ! EMO, EFA
0.059898 23.598                          ! EMO, EFA
0.060619 23.722                          ! EMO, EFA
0.061330 23.844                          ! EMO, EFA
0.062058 23.950                          ! EMO, EFA
0.062808 24.034                          ! EMO, EFA
0.063557 24.117                          ! EMO, EFA
0.064176 24.195                          ! EMO, EFA
0.064794 24.271                          ! EMO, EFA